/*--------------------------------*- C++ -*----------------------------------*\
| =========                 |                                                 |
| \\      /  F ield         | OpenFOAM: The Open Source CFD Toolbox           |
|  \\    /   O peration     | Version:  2.4.0                                 |
|   \\  /    A nd           | Web:      www.OpenFOAM.com                      |
|    \\/     M anipulation  |                                                 |
\*---------------------------------------------------------------------------*/
FoamFile
{
    version     2.0;
    format      ascii;
    class       volScalarField;
    object      alpha;
}
// * * * * * * * * * * * * * * * * * * * * * * * * * * * * * * * * * * * * * //

dimensions      [0 0 0 0 0 0 0];

internalField   uniform 0;

boundaryField
{
    liquidinlet
    {
        type            fixedValue;
        value           uniform 1;
    }
    liquidoutlet
    {
        type            inletOutlet;
        inletValue      uniform 0;
        value           uniform 0;
    }
    fixedwall
    {
        type           constantAlphaContactAngle;
        theta0         90;
        limit          gradient;
        value          uniform 1;
    }
    airatmosphere
    {
        type            inletOutlet;
        inletValue      uniform 0;
        value           uniform 0;
    }
    airinlet
    {
        type            inletOutlet;
        inletValue      uniform 0;
        value           uniform 0;
    }
    airoutlet
    {
        type            inletOutlet;
        inletValue      uniform 0;
        value           uniform 0;
    }
    frontAndBackPlanes
    {
        type            empty;
    }
}

// ************************************************************************* //
