/*--------------------------------*- C++ -*----------------------------------*\
| =========                 |                                                 |
| \\      /  F ield         | OpenFOAM: The Open Source CFD Toolbox           |
|  \\    /   O peration     | Version:  2.4.0                                 |
|   \\  /    A nd           | Web:      www.OpenFOAM.com                      |
|    \\/     M anipulation  |                                                 |
\*---------------------------------------------------------------------------*/
FoamFile
{
    version     2.0;
    format      ascii;
    class       dictionary;
    location    "system";
    object      sampleDict;
}
// * * * * * * * * * * * * * * * * * * * * * * * * * * * * * * * * * * * * * //

interpolationScheme cellPoint;
setFormat raw;
sets
(
    velocity
  {
    type uniform;
    axis y;
    start (0.025 -0.002 0);
    end (0.025 -0.00032128 0);
    nPoints 100;
  }
);



surfaceFormat      raw;

surfaces        
(
    constantIso
    {
        // Iso surface for constant values.
        // Triangles guaranteed not to cross cells.
        type            isoSurfaceCell;    // always triangulated
        isoField        alpha.water;
        isoValue        0.5;
        interpolate     false;
        regularise      false;              // do not simplify
    }
);

fields            
( 
    U    
    alpha.water 
);


// ************************************************************************* //
