/*--------------------------------*- C++ -*----------------------------------  
| =========                 |                                                 |
| \      /  F ield         | OpenFOAM: The Open Source CFD Toolbox           |
|  \    /   O peration     | Version:  1.7.1                                 |
|   \  /    A nd           | Web:      www.OpenFOAM.com                      |
|    \/     M anipulation  |                                                 |
  ---------------------------------------------------------------------------*/
FoamFile
{
    version     2.0;
    format      ascii;
    class       volVectorField;
    location    "0";
    object      U;
}
// * * * * * * * * * * * * * * * * * * * * * * * * * * * * * * * * * * * * * //

dimensions      [0 1 -1 0 0 0 0];

internalField   uniform (  0.170718 0 0);

boundaryField
{
    liquidinlet
    {
        type            groovyBC;
        variables "dy=(pos().y)*479.383300;vx=0.512154*(dy-0.5*pow(dy,2));";
        valueExpression "vector(vx,0,0)";
        value           uniform (0 0 0);
    }
    liquidoutlet
    {
        type            groovyBC;
        variables "dy=(pos().y)*479.383300;vx=0.512154*(dy-0.5*pow(dy,2));";
        valueExpression "vector(vx,0,0)";
        value           uniform (0 0 0);
    }
    fixedwall
    {
        type            fixedValue;
        value           uniform (0 0 0);
    }
    airatmosphere
    {
        type            pressureInletOutletVelocity;
        value           uniform (0 0 0);
    }
    airinlet
    {
        type            zeroGradient;
    }
    airoutlet
    {
        type            fixedValue;
        value           uniform (0.25607697 0 0);
    }
    frontAndBackPlanes
    {
        type            empty;
    }
}

// ************************************************************************* //
