/*--------------------------------*- C++ -*----------------------------------*\
| =========                 |                                                 |
| \\      /  F ield         | OpenFOAM: The Open Source CFD Toolbox           |
|  \\    /   O peration     | Version:  2.4.0                                 |
|   \\  /    A nd           | Web:      www.OpenFOAM.org                      |
|    \\/     M anipulation  |                                                 |
\*---------------------------------------------------------------------------*/
FoamFile
{
    version     2.0;
    format      ascii;
    class       dictionary;
    location    "system";
    object      sampleSurfaceDict;
}
// * * * * * * * * * * * * * * * * * * * * * * * * * * * * * * * * * * * * * //

interpolationScheme cellPoint;

surfaceFormat      raw;

surfaces        
(
    constantIso
    {
        // Iso surface for constant values.
        // Triangles guaranteed not to cross cells.
        type            isoSurface;    // always triangulated
        isoField        alpha.water;
        isoValue        0.5;
        interpolate     true;
        regularise      true;              // do not simplify
    }
);

fields            
(     
    alpha.water 
);

// ************************************************************************* //
