/*--------------------------------*- C++ -*----------------------------------*\
| =========                 |                                                 |
| \\      /  F ield         | OpenFOAM: The Open Source CFD Toolbox           |
|  \\    /   O peration     | Version:  1.7.1                                 |
|   \\  /    A nd           | Web:      www.OpenFOAM.com                      |
|    \\/     M anipulation  |                                                 |
\*---------------------------------------------------------------------------*/
FoamFile
{
    version     2.0;
    format      ascii;
    class       dictionary;
    object      blockMeshDict;
}
// * * * * * * * * * * * * * * * * * * * * * * * * * * * * * * * * * * * * * //

convertToMeters 1;

vertices        
(
(0 0 0)
(0 0.00167872 0)
(0 0.00671487 0)
(0.01 0 0)
(0.01 0.00167872 0)
(0.01 0.00671487 0)

(0 0 0.0001)
(0 0.00167872 0.0001)
(0 0.00671487 0.0001)
(0.01 0 0.0001)
(0.01 0.00167872 0.0001)
(0.01 0.00671487 0.0001)
);

blocks          
(
     hex (0 3 4 1 6 9 10 7) (120 20 1) simpleGrading (1 1 1)
     hex (1 4 5 2 7 10 11 8) (120 60 1) simpleGrading (1 1 1)
);

edges           
(
spline 0 3
(
( 0.00000000 0.00000000 0.00000000) 
( 0.00003906 -0.00000030 0.00000000) 
( 0.00007813 -0.00000120 0.00000000) 
( 0.00011719 -0.00000271 0.00000000) 
( 0.00015625 -0.00000482 0.00000000) 
( 0.00019531 -0.00000752 0.00000000) 
( 0.00023437 -0.00001082 0.00000000) 
( 0.00027344 -0.00001472 0.00000000) 
( 0.00031250 -0.00001921 0.00000000) 
( 0.00035156 -0.00002430 0.00000000) 
( 0.00039063 -0.00002997 0.00000000) 
( 0.00042969 -0.00003622 0.00000000) 
( 0.00046875 -0.00004306 0.00000000) 
( 0.00050781 -0.00005047 0.00000000) 
( 0.00054688 -0.00005846 0.00000000) 
( 0.00058594 -0.00006701 0.00000000) 
( 0.00062500 -0.00007612 0.00000000) 
( 0.00066406 -0.00008579 0.00000000) 
( 0.00070312 -0.00009601 0.00000000) 
( 0.00074219 -0.00010678 0.00000000) 
( 0.00078125 -0.00011808 0.00000000) 
( 0.00082031 -0.00012991 0.00000000) 
( 0.00085938 -0.00014227 0.00000000) 
( 0.00089844 -0.00015515 0.00000000) 
( 0.00093750 -0.00016853 0.00000000) 
( 0.00097656 -0.00018242 0.00000000) 
( 0.00101563 -0.00019679 0.00000000) 
( 0.00105469 -0.00021165 0.00000000) 
( 0.00109375 -0.00022699 0.00000000) 
( 0.00113281 -0.00024279 0.00000000) 
( 0.00117188 -0.00025905 0.00000000) 
( 0.00121094 -0.00027575 0.00000000) 
( 0.00125000 -0.00029289 0.00000000) 
( 0.00128906 -0.00031046 0.00000000) 
( 0.00132813 -0.00032844 0.00000000) 
( 0.00136719 -0.00034683 0.00000000) 
( 0.00140625 -0.00036561 0.00000000) 
( 0.00144531 -0.00038477 0.00000000) 
( 0.00148438 -0.00040430 0.00000000) 
( 0.00152344 -0.00042419 0.00000000) 
( 0.00156250 -0.00044443 0.00000000) 
( 0.00160156 -0.00046500 0.00000000) 
( 0.00164062 -0.00048590 0.00000000) 
( 0.00167969 -0.00050710 0.00000000) 
( 0.00171875 -0.00052860 0.00000000) 
( 0.00175781 -0.00055039 0.00000000) 
( 0.00179688 -0.00057244 0.00000000) 
( 0.00183594 -0.00059476 0.00000000) 
( 0.00187500 -0.00061732 0.00000000) 
( 0.00191406 -0.00064010 0.00000000) 
( 0.00195313 -0.00066311 0.00000000) 
( 0.00199219 -0.00068632 0.00000000) 
( 0.00203125 -0.00070972 0.00000000) 
( 0.00207031 -0.00073329 0.00000000) 
( 0.00210938 -0.00075702 0.00000000) 
( 0.00214844 -0.00078090 0.00000000) 
( 0.00218750 -0.00080491 0.00000000) 
( 0.00222656 -0.00082904 0.00000000) 
( 0.00226562 -0.00085327 0.00000000) 
( 0.00230469 -0.00087759 0.00000000) 
( 0.00234375 -0.00090198 0.00000000) 
( 0.00238281 -0.00092644 0.00000000) 
( 0.00242188 -0.00095093 0.00000000) 
( 0.00246094 -0.00097546 0.00000000) 
( 0.00250000 -0.00100000 0.00000000) 
( 0.00253906 -0.00102454 0.00000000) 
( 0.00257813 -0.00104907 0.00000000) 
( 0.00261719 -0.00107356 0.00000000) 
( 0.00265625 -0.00109802 0.00000000) 
( 0.00269531 -0.00112241 0.00000000) 
( 0.00273438 -0.00114673 0.00000000) 
( 0.00277344 -0.00117096 0.00000000) 
( 0.00281250 -0.00119509 0.00000000) 
( 0.00285156 -0.00121910 0.00000000) 
( 0.00289063 -0.00124298 0.00000000) 
( 0.00292969 -0.00126671 0.00000000) 
( 0.00296875 -0.00129028 0.00000000) 
( 0.00300781 -0.00131368 0.00000000) 
( 0.00304688 -0.00133689 0.00000000) 
( 0.00308594 -0.00135990 0.00000000) 
( 0.00312500 -0.00138268 0.00000000) 
( 0.00316406 -0.00140524 0.00000000) 
( 0.00320313 -0.00142756 0.00000000) 
( 0.00324219 -0.00144961 0.00000000) 
( 0.00328125 -0.00147140 0.00000000) 
( 0.00332031 -0.00149290 0.00000000) 
( 0.00335937 -0.00151410 0.00000000) 
( 0.00339844 -0.00153500 0.00000000) 
( 0.00343750 -0.00155557 0.00000000) 
( 0.00347656 -0.00157581 0.00000000) 
( 0.00351563 -0.00159570 0.00000000) 
( 0.00355469 -0.00161523 0.00000000) 
( 0.00359375 -0.00163439 0.00000000) 
( 0.00363281 -0.00165317 0.00000000) 
( 0.00367188 -0.00167156 0.00000000) 
( 0.00371094 -0.00168954 0.00000000) 
( 0.00375000 -0.00170711 0.00000000) 
( 0.00378906 -0.00172425 0.00000000) 
( 0.00382812 -0.00174095 0.00000000) 
( 0.00386719 -0.00175721 0.00000000) 
( 0.00390625 -0.00177301 0.00000000) 
( 0.00394531 -0.00178835 0.00000000) 
( 0.00398438 -0.00180321 0.00000000) 
( 0.00402344 -0.00181758 0.00000000) 
( 0.00406250 -0.00183147 0.00000000) 
( 0.00410156 -0.00184485 0.00000000) 
( 0.00414063 -0.00185773 0.00000000) 
( 0.00417969 -0.00187009 0.00000000) 
( 0.00421875 -0.00188192 0.00000000) 
( 0.00425781 -0.00189322 0.00000000) 
( 0.00429688 -0.00190399 0.00000000) 
( 0.00433594 -0.00191421 0.00000000) 
( 0.00437500 -0.00192388 0.00000000) 
( 0.00441406 -0.00193299 0.00000000) 
( 0.00445313 -0.00194154 0.00000000) 
( 0.00449219 -0.00194953 0.00000000) 
( 0.00453125 -0.00195694 0.00000000) 
( 0.00457031 -0.00196378 0.00000000) 
( 0.00460937 -0.00197003 0.00000000) 
( 0.00464844 -0.00197570 0.00000000) 
( 0.00468750 -0.00198079 0.00000000) 
( 0.00472656 -0.00198528 0.00000000) 
( 0.00476562 -0.00198918 0.00000000) 
( 0.00480469 -0.00199248 0.00000000) 
( 0.00484375 -0.00199518 0.00000000) 
( 0.00488281 -0.00199729 0.00000000) 
( 0.00492188 -0.00199880 0.00000000) 
( 0.00496094 -0.00199970 0.00000000) 
( 0.00500000 -0.00200000 0.00000000) 
( 0.00503906 -0.00199970 0.00000000) 
( 0.00507813 -0.00199880 0.00000000) 
( 0.00511719 -0.00199729 0.00000000) 
( 0.00515625 -0.00199518 0.00000000) 
( 0.00519531 -0.00199248 0.00000000) 
( 0.00523438 -0.00198918 0.00000000) 
( 0.00527344 -0.00198528 0.00000000) 
( 0.00531250 -0.00198079 0.00000000) 
( 0.00535156 -0.00197570 0.00000000) 
( 0.00539063 -0.00197003 0.00000000) 
( 0.00542969 -0.00196378 0.00000000) 
( 0.00546875 -0.00195694 0.00000000) 
( 0.00550781 -0.00194953 0.00000000) 
( 0.00554687 -0.00194154 0.00000000) 
( 0.00558594 -0.00193299 0.00000000) 
( 0.00562500 -0.00192388 0.00000000) 
( 0.00566406 -0.00191421 0.00000000) 
( 0.00570312 -0.00190399 0.00000000) 
( 0.00574219 -0.00189322 0.00000000) 
( 0.00578125 -0.00188192 0.00000000) 
( 0.00582031 -0.00187009 0.00000000) 
( 0.00585938 -0.00185773 0.00000000) 
( 0.00589844 -0.00184485 0.00000000) 
( 0.00593750 -0.00183147 0.00000000) 
( 0.00597656 -0.00181758 0.00000000) 
( 0.00601563 -0.00180321 0.00000000) 
( 0.00605469 -0.00178835 0.00000000) 
( 0.00609375 -0.00177301 0.00000000) 
( 0.00613281 -0.00175721 0.00000000) 
( 0.00617188 -0.00174095 0.00000000) 
( 0.00621094 -0.00172425 0.00000000) 
( 0.00625000 -0.00170711 0.00000000) 
( 0.00628906 -0.00168954 0.00000000) 
( 0.00632813 -0.00167156 0.00000000) 
( 0.00636719 -0.00165317 0.00000000) 
( 0.00640625 -0.00163439 0.00000000) 
( 0.00644531 -0.00161523 0.00000000) 
( 0.00648438 -0.00159570 0.00000000) 
( 0.00652344 -0.00157581 0.00000000) 
( 0.00656250 -0.00155557 0.00000000) 
( 0.00660156 -0.00153500 0.00000000) 
( 0.00664063 -0.00151410 0.00000000) 
( 0.00667969 -0.00149290 0.00000000) 
( 0.00671875 -0.00147140 0.00000000) 
( 0.00675781 -0.00144961 0.00000000) 
( 0.00679688 -0.00142756 0.00000000) 
( 0.00683594 -0.00140524 0.00000000) 
( 0.00687500 -0.00138268 0.00000000) 
( 0.00691406 -0.00135990 0.00000000) 
( 0.00695313 -0.00133689 0.00000000) 
( 0.00699219 -0.00131368 0.00000000) 
( 0.00703125 -0.00129028 0.00000000) 
( 0.00707031 -0.00126671 0.00000000) 
( 0.00710938 -0.00124298 0.00000000) 
( 0.00714844 -0.00121910 0.00000000) 
( 0.00718750 -0.00119509 0.00000000) 
( 0.00722656 -0.00117096 0.00000000) 
( 0.00726562 -0.00114673 0.00000000) 
( 0.00730469 -0.00112241 0.00000000) 
( 0.00734375 -0.00109802 0.00000000) 
( 0.00738281 -0.00107356 0.00000000) 
( 0.00742187 -0.00104907 0.00000000) 
( 0.00746094 -0.00102454 0.00000000) 
( 0.00750000 -0.00100000 0.00000000) 
( 0.00753906 -0.00097546 0.00000000) 
( 0.00757812 -0.00095093 0.00000000) 
( 0.00761719 -0.00092644 0.00000000) 
( 0.00765625 -0.00090198 0.00000000) 
( 0.00769531 -0.00087759 0.00000000) 
( 0.00773437 -0.00085327 0.00000000) 
( 0.00777344 -0.00082904 0.00000000) 
( 0.00781250 -0.00080491 0.00000000) 
( 0.00785156 -0.00078090 0.00000000) 
( 0.00789063 -0.00075702 0.00000000) 
( 0.00792969 -0.00073329 0.00000000) 
( 0.00796875 -0.00070972 0.00000000) 
( 0.00800781 -0.00068632 0.00000000) 
( 0.00804688 -0.00066311 0.00000000) 
( 0.00808594 -0.00064010 0.00000000) 
( 0.00812500 -0.00061732 0.00000000) 
( 0.00816406 -0.00059476 0.00000000) 
( 0.00820313 -0.00057244 0.00000000) 
( 0.00824219 -0.00055039 0.00000000) 
( 0.00828125 -0.00052860 0.00000000) 
( 0.00832031 -0.00050710 0.00000000) 
( 0.00835938 -0.00048590 0.00000000) 
( 0.00839844 -0.00046500 0.00000000) 
( 0.00843750 -0.00044443 0.00000000) 
( 0.00847656 -0.00042419 0.00000000) 
( 0.00851563 -0.00040430 0.00000000) 
( 0.00855469 -0.00038477 0.00000000) 
( 0.00859375 -0.00036561 0.00000000) 
( 0.00863281 -0.00034683 0.00000000) 
( 0.00867188 -0.00032844 0.00000000) 
( 0.00871094 -0.00031046 0.00000000) 
( 0.00875000 -0.00029289 0.00000000) 
( 0.00878906 -0.00027575 0.00000000) 
( 0.00882813 -0.00025905 0.00000000) 
( 0.00886719 -0.00024279 0.00000000) 
( 0.00890625 -0.00022699 0.00000000) 
( 0.00894531 -0.00021165 0.00000000) 
( 0.00898437 -0.00019679 0.00000000) 
( 0.00902344 -0.00018242 0.00000000) 
( 0.00906250 -0.00016853 0.00000000) 
( 0.00910156 -0.00015515 0.00000000) 
( 0.00914062 -0.00014227 0.00000000) 
( 0.00917969 -0.00012991 0.00000000) 
( 0.00921875 -0.00011808 0.00000000) 
( 0.00925781 -0.00010678 0.00000000) 
( 0.00929687 -0.00009601 0.00000000) 
( 0.00933594 -0.00008579 0.00000000) 
( 0.00937500 -0.00007612 0.00000000) 
( 0.00941406 -0.00006701 0.00000000) 
( 0.00945312 -0.00005846 0.00000000) 
( 0.00949219 -0.00005047 0.00000000) 
( 0.00953125 -0.00004306 0.00000000) 
( 0.00957031 -0.00003622 0.00000000) 
( 0.00960937 -0.00002997 0.00000000) 
( 0.00964844 -0.00002430 0.00000000) 
( 0.00968750 -0.00001921 0.00000000) 
( 0.00972656 -0.00001472 0.00000000) 
( 0.00976563 -0.00001082 0.00000000) 
( 0.00980469 -0.00000752 0.00000000) 
( 0.00984375 -0.00000482 0.00000000) 
( 0.00988281 -0.00000271 0.00000000) 
( 0.00992188 -0.00000120 0.00000000) 
( 0.00996094 -0.00000030 0.00000000) 
( 0.01000000 0.00000000 0.00000000) 
)
spline 1 4
(
( 0.00000000 0.001678722 0.00000000) 
( 0.00003906 0.00167842 0.00000000) 
( 0.00007813 0.00167751 0.00000000) 
( 0.00011719 0.00167601 0.00000000) 
( 0.00015625 0.00167390 0.00000000) 
( 0.00019531 0.00167120 0.00000000) 
( 0.00023437 0.00166789 0.00000000) 
( 0.00027344 0.00166400 0.00000000) 
( 0.00031250 0.00165950 0.00000000) 
( 0.00035156 0.00165442 0.00000000) 
( 0.00039063 0.00164875 0.00000000) 
( 0.00042969 0.00164249 0.00000000) 
( 0.00046875 0.00163566 0.00000000) 
( 0.00050781 0.00162825 0.00000000) 
( 0.00054688 0.00162026 0.00000000) 
( 0.00058594 0.00161171 0.00000000) 
( 0.00062500 0.00160260 0.00000000) 
( 0.00066406 0.00159293 0.00000000) 
( 0.00070312 0.00158271 0.00000000) 
( 0.00074219 0.00157194 0.00000000) 
( 0.00078125 0.00156064 0.00000000) 
( 0.00082031 0.00154880 0.00000000) 
( 0.00085938 0.00153645 0.00000000) 
( 0.00089844 0.00152357 0.00000000) 
( 0.00093750 0.00151019 0.00000000) 
( 0.00097656 0.00149630 0.00000000) 
( 0.00101563 0.00148193 0.00000000) 
( 0.00105469 0.00146706 0.00000000) 
( 0.00109375 0.00145173 0.00000000) 
( 0.00113281 0.00143593 0.00000000) 
( 0.00117188 0.00141967 0.00000000) 
( 0.00121094 0.00140296 0.00000000) 
( 0.00125000 0.00138582 0.00000000) 
( 0.00128906 0.00136826 0.00000000) 
( 0.00132813 0.00135028 0.00000000) 
( 0.00136719 0.00133189 0.00000000) 
( 0.00140625 0.00131311 0.00000000) 
( 0.00144531 0.00129395 0.00000000) 
( 0.00148438 0.00127442 0.00000000) 
( 0.00152344 0.00125453 0.00000000) 
( 0.00156250 0.00123429 0.00000000) 
( 0.00160156 0.00121372 0.00000000) 
( 0.00164062 0.00119282 0.00000000) 
( 0.00167969 0.00117162 0.00000000) 
( 0.00171875 0.00115011 0.00000000) 
( 0.00175781 0.00112833 0.00000000) 
( 0.00179688 0.00110627 0.00000000) 
( 0.00183594 0.00108396 0.00000000) 
( 0.00187500 0.00106140 0.00000000) 
( 0.00191406 0.00103861 0.00000000) 
( 0.00195313 0.00101561 0.00000000) 
( 0.00199219 0.00099240 0.00000000) 
( 0.00203125 0.00096900 0.00000000) 
( 0.00207031 0.00094543 0.00000000) 
( 0.00210938 0.00092170 0.00000000) 
( 0.00214844 0.00089782 0.00000000) 
( 0.00218750 0.00087381 0.00000000) 
( 0.00222656 0.00084968 0.00000000) 
( 0.00226562 0.00082545 0.00000000) 
( 0.00230469 0.00080113 0.00000000) 
( 0.00234375 0.00077673 0.00000000) 
( 0.00238281 0.00075228 0.00000000) 
( 0.00242188 0.00072779 0.00000000) 
( 0.00246094 0.00070326 0.00000000) 
( 0.00250000 0.00067872 0.00000000) 
( 0.00253906 0.00065418 0.00000000) 
( 0.00257813 0.00062965 0.00000000) 
( 0.00261719 0.00060515 0.00000000) 
( 0.00265625 0.00058070 0.00000000) 
( 0.00269531 0.00055631 0.00000000) 
( 0.00273438 0.00053199 0.00000000) 
( 0.00277344 0.00050776 0.00000000) 
( 0.00281250 0.00048363 0.00000000) 
( 0.00285156 0.00045962 0.00000000) 
( 0.00289063 0.00043574 0.00000000) 
( 0.00292969 0.00041200 0.00000000) 
( 0.00296875 0.00038843 0.00000000) 
( 0.00300781 0.00036504 0.00000000) 
( 0.00304688 0.00034183 0.00000000) 
( 0.00308594 0.00031882 0.00000000) 
( 0.00312500 0.00029603 0.00000000) 
( 0.00316406 0.00027348 0.00000000) 
( 0.00320313 0.00025116 0.00000000) 
( 0.00324219 0.00022911 0.00000000) 
( 0.00328125 0.00020732 0.00000000) 
( 0.00332031 0.00018582 0.00000000) 
( 0.00335937 0.00016461 0.00000000) 
( 0.00339844 0.00014372 0.00000000) 
( 0.00343750 0.00012315 0.00000000) 
( 0.00347656 0.00010291 0.00000000) 
( 0.00351563 0.00008302 0.00000000) 
( 0.00355469 0.00006349 0.00000000) 
( 0.00359375 0.00004432 0.00000000) 
( 0.00363281 0.00002554 0.00000000) 
( 0.00367188 0.00000716 0.00000000) 
( 0.00371094 -0.00001082 0.00000000) 
( 0.00375000 -0.00002839 0.00000000) 
( 0.00378906 -0.00004553 0.00000000) 
( 0.00382812 -0.00006223 0.00000000) 
( 0.00386719 -0.00007849 0.00000000) 
( 0.00390625 -0.00009429 0.00000000) 
( 0.00394531 -0.00010963 0.00000000) 
( 0.00398438 -0.00012449 0.00000000) 
( 0.00402344 -0.00013887 0.00000000) 
( 0.00406250 -0.00015275 0.00000000) 
( 0.00410156 -0.00016614 0.00000000) 
( 0.00414063 -0.00017901 0.00000000) 
( 0.00417969 -0.00019137 0.00000000) 
( 0.00421875 -0.00020320 0.00000000) 
( 0.00425781 -0.00021451 0.00000000) 
( 0.00429688 -0.00022527 0.00000000) 
( 0.00433594 -0.00023549 0.00000000) 
( 0.00437500 -0.00024516 0.00000000) 
( 0.00441406 -0.00025428 0.00000000) 
( 0.00445313 -0.00026283 0.00000000) 
( 0.00449219 -0.00027081 0.00000000) 
( 0.00453125 -0.00027822 0.00000000) 
( 0.00457031 -0.00028506 0.00000000) 
( 0.00460937 -0.00029131 0.00000000) 
( 0.00464844 -0.00029698 0.00000000) 
( 0.00468750 -0.00030207 0.00000000) 
( 0.00472656 -0.00030656 0.00000000) 
( 0.00476562 -0.00031046 0.00000000) 
( 0.00480469 -0.00031376 0.00000000) 
( 0.00484375 -0.00031647 0.00000000) 
( 0.00488281 -0.00031857 0.00000000) 
( 0.00492188 -0.00032008 0.00000000) 
( 0.00496094 -0.00032098 0.00000000) 
( 0.00500000 -0.00032128 0.00000000) 
( 0.00503906 -0.00032098 0.00000000) 
( 0.00507813 -0.00032008 0.00000000) 
( 0.00511719 -0.00031857 0.00000000) 
( 0.00515625 -0.00031647 0.00000000) 
( 0.00519531 -0.00031376 0.00000000) 
( 0.00523438 -0.00031046 0.00000000) 
( 0.00527344 -0.00030656 0.00000000) 
( 0.00531250 -0.00030207 0.00000000) 
( 0.00535156 -0.00029698 0.00000000) 
( 0.00539063 -0.00029131 0.00000000) 
( 0.00542969 -0.00028506 0.00000000) 
( 0.00546875 -0.00027822 0.00000000) 
( 0.00550781 -0.00027081 0.00000000) 
( 0.00554687 -0.00026283 0.00000000) 
( 0.00558594 -0.00025428 0.00000000) 
( 0.00562500 -0.00024516 0.00000000) 
( 0.00566406 -0.00023549 0.00000000) 
( 0.00570312 -0.00022527 0.00000000) 
( 0.00574219 -0.00021451 0.00000000) 
( 0.00578125 -0.00020320 0.00000000) 
( 0.00582031 -0.00019137 0.00000000) 
( 0.00585938 -0.00017901 0.00000000) 
( 0.00589844 -0.00016614 0.00000000) 
( 0.00593750 -0.00015275 0.00000000) 
( 0.00597656 -0.00013887 0.00000000) 
( 0.00601563 -0.00012449 0.00000000) 
( 0.00605469 -0.00010963 0.00000000) 
( 0.00609375 -0.00009429 0.00000000) 
( 0.00613281 -0.00007849 0.00000000) 
( 0.00617188 -0.00006223 0.00000000) 
( 0.00621094 -0.00004553 0.00000000) 
( 0.00625000 -0.00002839 0.00000000) 
( 0.00628906 -0.00001082 0.00000000) 
( 0.00632813 0.00000716 0.00000000) 
( 0.00636719 0.00002554 0.00000000) 
( 0.00640625 0.00004432 0.00000000) 
( 0.00644531 0.00006349 0.00000000) 
( 0.00648438 0.00008302 0.00000000) 
( 0.00652344 0.00010291 0.00000000) 
( 0.00656250 0.00012315 0.00000000) 
( 0.00660156 0.00014372 0.00000000) 
( 0.00664063 0.00016461 0.00000000) 
( 0.00667969 0.00018582 0.00000000) 
( 0.00671875 0.00020732 0.00000000) 
( 0.00675781 0.00022911 0.00000000) 
( 0.00679688 0.00025116 0.00000000) 
( 0.00683594 0.00027348 0.00000000) 
( 0.00687500 0.00029603 0.00000000) 
( 0.00691406 0.00031882 0.00000000) 
( 0.00695313 0.00034183 0.00000000) 
( 0.00699219 0.00036504 0.00000000) 
( 0.00703125 0.00038843 0.00000000) 
( 0.00707031 0.00041200 0.00000000) 
( 0.00710938 0.00043574 0.00000000) 
( 0.00714844 0.00045962 0.00000000) 
( 0.00718750 0.00048363 0.00000000) 
( 0.00722656 0.00050776 0.00000000) 
( 0.00726562 0.00053199 0.00000000) 
( 0.00730469 0.00055631 0.00000000) 
( 0.00734375 0.00058070 0.00000000) 
( 0.00738281 0.00060515 0.00000000) 
( 0.00742187 0.00062965 0.00000000) 
( 0.00746094 0.00065418 0.00000000) 
( 0.00750000 0.00067872 0.00000000) 
( 0.00753906 0.00070326 0.00000000) 
( 0.00757812 0.00072779 0.00000000) 
( 0.00761719 0.00075228 0.00000000) 
( 0.00765625 0.00077673 0.00000000) 
( 0.00769531 0.00080113 0.00000000) 
( 0.00773437 0.00082545 0.00000000) 
( 0.00777344 0.00084968 0.00000000) 
( 0.00781250 0.00087381 0.00000000) 
( 0.00785156 0.00089782 0.00000000) 
( 0.00789063 0.00092170 0.00000000) 
( 0.00792969 0.00094543 0.00000000) 
( 0.00796875 0.00096900 0.00000000) 
( 0.00800781 0.00099240 0.00000000) 
( 0.00804688 0.00101561 0.00000000) 
( 0.00808594 0.00103861 0.00000000) 
( 0.00812500 0.00106140 0.00000000) 
( 0.00816406 0.00108396 0.00000000) 
( 0.00820313 0.00110627 0.00000000) 
( 0.00824219 0.00112833 0.00000000) 
( 0.00828125 0.00115011 0.00000000) 
( 0.00832031 0.00117162 0.00000000) 
( 0.00835938 0.00119282 0.00000000) 
( 0.00839844 0.00121372 0.00000000) 
( 0.00843750 0.00123429 0.00000000) 
( 0.00847656 0.00125453 0.00000000) 
( 0.00851563 0.00127442 0.00000000) 
( 0.00855469 0.00129395 0.00000000) 
( 0.00859375 0.00131311 0.00000000) 
( 0.00863281 0.00133189 0.00000000) 
( 0.00867188 0.00135028 0.00000000) 
( 0.00871094 0.00136826 0.00000000) 
( 0.00875000 0.00138582 0.00000000) 
( 0.00878906 0.00140296 0.00000000) 
( 0.00882813 0.00141967 0.00000000) 
( 0.00886719 0.00143593 0.00000000) 
( 0.00890625 0.00145173 0.00000000) 
( 0.00894531 0.00146706 0.00000000) 
( 0.00898437 0.00148193 0.00000000) 
( 0.00902344 0.00149630 0.00000000) 
( 0.00906250 0.00151019 0.00000000) 
( 0.00910156 0.00152357 0.00000000) 
( 0.00914062 0.00153645 0.00000000) 
( 0.00917969 0.00154880 0.00000000) 
( 0.00921875 0.00156064 0.00000000) 
( 0.00925781 0.00157194 0.00000000) 
( 0.00929687 0.00158271 0.00000000) 
( 0.00933594 0.00159293 0.00000000) 
( 0.00937500 0.00160260 0.00000000) 
( 0.00941406 0.00161171 0.00000000) 
( 0.00945312 0.00162026 0.00000000) 
( 0.00949219 0.00162825 0.00000000) 
( 0.00953125 0.00163566 0.00000000) 
( 0.00957031 0.00164249 0.00000000) 
( 0.00960937 0.00164875 0.00000000) 
( 0.00964844 0.00165442 0.00000000) 
( 0.00968750 0.00165950 0.00000000) 
( 0.00972656 0.00166400 0.00000000) 
( 0.00976563 0.00166789 0.00000000) 
( 0.00980469 0.00167120 0.00000000) 
( 0.00984375 0.00167390 0.00000000) 
( 0.00988281 0.00167601 0.00000000) 
( 0.00992188 0.00167751 0.00000000) 
( 0.00996094 0.00167842 0.00000000) 
( 0.01000000 0.001678722 0.00000000) 
)
spline 2 5
(
( 0.00000000 0.00671487 0.00000000) 
( 0.00003906 0.00671457 0.00000000) 
( 0.00007813 0.00671367 0.00000000) 
( 0.00011719 0.00671216 0.00000000) 
( 0.00015625 0.00671005 0.00000000) 
( 0.00019531 0.00670735 0.00000000) 
( 0.00023437 0.00670405 0.00000000) 
( 0.00027344 0.00670015 0.00000000) 
( 0.00031250 0.00669566 0.00000000) 
( 0.00035156 0.00669057 0.00000000) 
( 0.00039063 0.00668490 0.00000000) 
( 0.00042969 0.00667865 0.00000000) 
( 0.00046875 0.00667181 0.00000000) 
( 0.00050781 0.00666440 0.00000000) 
( 0.00054688 0.00665641 0.00000000) 
( 0.00058594 0.00664786 0.00000000) 
( 0.00062500 0.00663875 0.00000000) 
( 0.00066406 0.00662908 0.00000000) 
( 0.00070312 0.00661886 0.00000000) 
( 0.00074219 0.00660809 0.00000000) 
( 0.00078125 0.00659679 0.00000000) 
( 0.00082031 0.00658496 0.00000000) 
( 0.00085938 0.00657260 0.00000000) 
( 0.00089844 0.00655972 0.00000000) 
( 0.00093750 0.00654634 0.00000000) 
( 0.00097656 0.00653246 0.00000000) 
( 0.00101563 0.00651808 0.00000000) 
( 0.00105469 0.00650322 0.00000000) 
( 0.00109375 0.00648788 0.00000000) 
( 0.00113281 0.00647208 0.00000000) 
( 0.00117188 0.00645582 0.00000000) 
( 0.00121094 0.00643912 0.00000000) 
( 0.00125000 0.00642198 0.00000000) 
( 0.00128906 0.00640441 0.00000000) 
( 0.00132813 0.00638643 0.00000000) 
( 0.00136719 0.00636804 0.00000000) 
( 0.00140625 0.00634926 0.00000000) 
( 0.00144531 0.00633010 0.00000000) 
( 0.00148438 0.00631057 0.00000000) 
( 0.00152344 0.00629068 0.00000000) 
( 0.00156250 0.00627044 0.00000000) 
( 0.00160156 0.00624987 0.00000000) 
( 0.00164062 0.00622897 0.00000000) 
( 0.00167969 0.00620777 0.00000000) 
( 0.00171875 0.00618627 0.00000000) 
( 0.00175781 0.00616448 0.00000000) 
( 0.00179688 0.00614243 0.00000000) 
( 0.00183594 0.00612011 0.00000000) 
( 0.00187500 0.00609755 0.00000000) 
( 0.00191406 0.00607477 0.00000000) 
( 0.00195313 0.00605176 0.00000000) 
( 0.00199219 0.00602855 0.00000000) 
( 0.00203125 0.00600515 0.00000000) 
( 0.00207031 0.00598158 0.00000000) 
( 0.00210938 0.00595785 0.00000000) 
( 0.00214844 0.00593397 0.00000000) 
( 0.00218750 0.00590996 0.00000000) 
( 0.00222656 0.00588583 0.00000000) 
( 0.00226562 0.00586160 0.00000000) 
( 0.00230469 0.00583728 0.00000000) 
( 0.00234375 0.00581289 0.00000000) 
( 0.00238281 0.00578843 0.00000000) 
( 0.00242188 0.00576394 0.00000000) 
( 0.00246094 0.00573941 0.00000000) 
( 0.00250000 0.00571487 0.00000000) 
( 0.00253906 0.00569033 0.00000000) 
( 0.00257813 0.00566580 0.00000000) 
( 0.00261719 0.00564131 0.00000000) 
( 0.00265625 0.00561685 0.00000000) 
( 0.00269531 0.00559246 0.00000000) 
( 0.00273438 0.00556814 0.00000000) 
( 0.00277344 0.00554391 0.00000000) 
( 0.00281250 0.00551978 0.00000000) 
( 0.00285156 0.00549577 0.00000000) 
( 0.00289063 0.00547189 0.00000000) 
( 0.00292969 0.00544816 0.00000000) 
( 0.00296875 0.00542459 0.00000000) 
( 0.00300781 0.00540119 0.00000000) 
( 0.00304688 0.00537798 0.00000000) 
( 0.00308594 0.00535498 0.00000000) 
( 0.00312500 0.00533219 0.00000000) 
( 0.00316406 0.00530963 0.00000000) 
( 0.00320313 0.00528732 0.00000000) 
( 0.00324219 0.00526526 0.00000000) 
( 0.00328125 0.00524347 0.00000000) 
( 0.00332031 0.00522197 0.00000000) 
( 0.00335937 0.00520077 0.00000000) 
( 0.00339844 0.00517987 0.00000000) 
( 0.00343750 0.00515930 0.00000000) 
( 0.00347656 0.00513906 0.00000000) 
( 0.00351563 0.00511917 0.00000000) 
( 0.00355469 0.00509964 0.00000000) 
( 0.00359375 0.00508048 0.00000000) 
( 0.00363281 0.00506170 0.00000000) 
( 0.00367188 0.00504331 0.00000000) 
( 0.00371094 0.00502533 0.00000000) 
( 0.00375000 0.00500776 0.00000000) 
( 0.00378906 0.00499062 0.00000000) 
( 0.00382812 0.00497392 0.00000000) 
( 0.00386719 0.00495766 0.00000000) 
( 0.00390625 0.00494186 0.00000000) 
( 0.00394531 0.00492652 0.00000000) 
( 0.00398438 0.00491166 0.00000000) 
( 0.00402344 0.00489729 0.00000000) 
( 0.00406250 0.00488340 0.00000000) 
( 0.00410156 0.00487002 0.00000000) 
( 0.00414063 0.00485714 0.00000000) 
( 0.00417969 0.00484478 0.00000000) 
( 0.00421875 0.00483295 0.00000000) 
( 0.00425781 0.00482165 0.00000000) 
( 0.00429688 0.00481088 0.00000000) 
( 0.00433594 0.00480066 0.00000000) 
( 0.00437500 0.00479099 0.00000000) 
( 0.00441406 0.00478188 0.00000000) 
( 0.00445313 0.00477333 0.00000000) 
( 0.00449219 0.00476534 0.00000000) 
( 0.00453125 0.00475793 0.00000000) 
( 0.00457031 0.00475109 0.00000000) 
( 0.00460937 0.00474484 0.00000000) 
( 0.00464844 0.00473917 0.00000000) 
( 0.00468750 0.00473408 0.00000000) 
( 0.00472656 0.00472959 0.00000000) 
( 0.00476562 0.00472569 0.00000000) 
( 0.00480469 0.00472239 0.00000000) 
( 0.00484375 0.00471969 0.00000000) 
( 0.00488281 0.00471758 0.00000000) 
( 0.00492188 0.00471607 0.00000000) 
( 0.00496094 0.00471517 0.00000000) 
( 0.00500000 0.00471487 0.00000000) 
( 0.00503906 0.00471517 0.00000000) 
( 0.00507813 0.00471607 0.00000000) 
( 0.00511719 0.00471758 0.00000000) 
( 0.00515625 0.00471969 0.00000000) 
( 0.00519531 0.00472239 0.00000000) 
( 0.00523438 0.00472569 0.00000000) 
( 0.00527344 0.00472959 0.00000000) 
( 0.00531250 0.00473408 0.00000000) 
( 0.00535156 0.00473917 0.00000000) 
( 0.00539063 0.00474484 0.00000000) 
( 0.00542969 0.00475109 0.00000000) 
( 0.00546875 0.00475793 0.00000000) 
( 0.00550781 0.00476534 0.00000000) 
( 0.00554687 0.00477333 0.00000000) 
( 0.00558594 0.00478188 0.00000000) 
( 0.00562500 0.00479099 0.00000000) 
( 0.00566406 0.00480066 0.00000000) 
( 0.00570312 0.00481088 0.00000000) 
( 0.00574219 0.00482165 0.00000000) 
( 0.00578125 0.00483295 0.00000000) 
( 0.00582031 0.00484478 0.00000000) 
( 0.00585938 0.00485714 0.00000000) 
( 0.00589844 0.00487002 0.00000000) 
( 0.00593750 0.00488340 0.00000000) 
( 0.00597656 0.00489729 0.00000000) 
( 0.00601563 0.00491166 0.00000000) 
( 0.00605469 0.00492652 0.00000000) 
( 0.00609375 0.00494186 0.00000000) 
( 0.00613281 0.00495766 0.00000000) 
( 0.00617188 0.00497392 0.00000000) 
( 0.00621094 0.00499062 0.00000000) 
( 0.00625000 0.00500776 0.00000000) 
( 0.00628906 0.00502533 0.00000000) 
( 0.00632813 0.00504331 0.00000000) 
( 0.00636719 0.00506170 0.00000000) 
( 0.00640625 0.00508048 0.00000000) 
( 0.00644531 0.00509964 0.00000000) 
( 0.00648438 0.00511917 0.00000000) 
( 0.00652344 0.00513906 0.00000000) 
( 0.00656250 0.00515930 0.00000000) 
( 0.00660156 0.00517987 0.00000000) 
( 0.00664063 0.00520077 0.00000000) 
( 0.00667969 0.00522197 0.00000000) 
( 0.00671875 0.00524347 0.00000000) 
( 0.00675781 0.00526526 0.00000000) 
( 0.00679688 0.00528732 0.00000000) 
( 0.00683594 0.00530963 0.00000000) 
( 0.00687500 0.00533219 0.00000000) 
( 0.00691406 0.00535498 0.00000000) 
( 0.00695313 0.00537798 0.00000000) 
( 0.00699219 0.00540119 0.00000000) 
( 0.00703125 0.00542459 0.00000000) 
( 0.00707031 0.00544816 0.00000000) 
( 0.00710938 0.00547189 0.00000000) 
( 0.00714844 0.00549577 0.00000000) 
( 0.00718750 0.00551978 0.00000000) 
( 0.00722656 0.00554391 0.00000000) 
( 0.00726562 0.00556814 0.00000000) 
( 0.00730469 0.00559246 0.00000000) 
( 0.00734375 0.00561685 0.00000000) 
( 0.00738281 0.00564131 0.00000000) 
( 0.00742187 0.00566580 0.00000000) 
( 0.00746094 0.00569033 0.00000000) 
( 0.00750000 0.00571487 0.00000000) 
( 0.00753906 0.00573941 0.00000000) 
( 0.00757812 0.00576394 0.00000000) 
( 0.00761719 0.00578843 0.00000000) 
( 0.00765625 0.00581289 0.00000000) 
( 0.00769531 0.00583728 0.00000000) 
( 0.00773437 0.00586160 0.00000000) 
( 0.00777344 0.00588583 0.00000000) 
( 0.00781250 0.00590996 0.00000000) 
( 0.00785156 0.00593397 0.00000000) 
( 0.00789063 0.00595785 0.00000000) 
( 0.00792969 0.00598158 0.00000000) 
( 0.00796875 0.00600515 0.00000000) 
( 0.00800781 0.00602855 0.00000000) 
( 0.00804688 0.00605176 0.00000000) 
( 0.00808594 0.00607477 0.00000000) 
( 0.00812500 0.00609755 0.00000000) 
( 0.00816406 0.00612011 0.00000000) 
( 0.00820313 0.00614243 0.00000000) 
( 0.00824219 0.00616448 0.00000000) 
( 0.00828125 0.00618627 0.00000000) 
( 0.00832031 0.00620777 0.00000000) 
( 0.00835938 0.00622897 0.00000000) 
( 0.00839844 0.00624987 0.00000000) 
( 0.00843750 0.00627044 0.00000000) 
( 0.00847656 0.00629068 0.00000000) 
( 0.00851563 0.00631057 0.00000000) 
( 0.00855469 0.00633010 0.00000000) 
( 0.00859375 0.00634926 0.00000000) 
( 0.00863281 0.00636804 0.00000000) 
( 0.00867188 0.00638643 0.00000000) 
( 0.00871094 0.00640441 0.00000000) 
( 0.00875000 0.00642198 0.00000000) 
( 0.00878906 0.00643912 0.00000000) 
( 0.00882813 0.00645582 0.00000000) 
( 0.00886719 0.00647208 0.00000000) 
( 0.00890625 0.00648788 0.00000000) 
( 0.00894531 0.00650322 0.00000000) 
( 0.00898437 0.00651808 0.00000000) 
( 0.00902344 0.00653246 0.00000000) 
( 0.00906250 0.00654634 0.00000000) 
( 0.00910156 0.00655972 0.00000000) 
( 0.00914062 0.00657260 0.00000000) 
( 0.00917969 0.00658496 0.00000000) 
( 0.00921875 0.00659679 0.00000000) 
( 0.00925781 0.00660809 0.00000000) 
( 0.00929687 0.00661886 0.00000000) 
( 0.00933594 0.00662908 0.00000000) 
( 0.00937500 0.00663875 0.00000000) 
( 0.00941406 0.00664786 0.00000000) 
( 0.00945312 0.00665641 0.00000000) 
( 0.00949219 0.00666440 0.00000000) 
( 0.00953125 0.00667181 0.00000000) 
( 0.00957031 0.00667865 0.00000000) 
( 0.00960937 0.00668490 0.00000000) 
( 0.00964844 0.00669057 0.00000000) 
( 0.00968750 0.00669566 0.00000000) 
( 0.00972656 0.00670015 0.00000000) 
( 0.00976563 0.00670405 0.00000000) 
( 0.00980469 0.00670735 0.00000000) 
( 0.00984375 0.00671005 0.00000000) 
( 0.00988281 0.00671216 0.00000000) 